<nodes>
    <node id="TrafficLight" x="0.0" y="0.0" type="traffic_light"/>
    <node id="West" x="-750.0" y="0.0" type="priority"/>
    <node id="East" x="+750.0" y="0.0" type="priority"/>
    <node id="South" x="0.0" y="-750.0" type="priority"/>
    <node id="North" x="0.0" y="+750.0" type="priority"/>
</nodes>