<additional>
    <tlLogic id="TrafficLight" type="static" programID="0" offset="0">
        <phase duration="42" state="GGgrrrrrrrrr"/>
        <phase duration="3"  state="yyyrrrrrrrrr"/>
        <phase duration="42" state="rrrGGgrrrrrr"/>
        <phase duration="3"  state="rrryyyrrrrrr"/>
        <phase duration="42" state="rrrrrrGGgrrr"/>
        <phase duration="3"  state="rrrrrryyyrrr"/>
        <phase duration="42" state="rrrrrrrrrGGg"/>
        <phase duration="3"  state="rrrrrrrrryyy"/>
    </tlLogic>

</additional>