<types>
    <type id="highway" priority="78" numLanes="1" speed="13.89"/>
</types>